test/data/distribution/ut_trans_2w_yy_138kv_nosubs_mn.dss
clear

! Base Frequency
Set DefaultBaseFrequency=60

! New Circuit
New circuit.ut_trans_138kv_nosubs_mn
~ basekv=138 pu=1.00 MVAsc3=200000 MVAsc1=210000

! Transformers
New Transformer.TX1 windings=2 phases=3 Buses=[1 2]
~ Conns=[Wye Wye]
~ kVs=[138 4]
~ kVAs=[500 500]
~ %Rs=[1 2]
~ xhl=5
~ %noloadloss=5
~ %imag=11
~ leadlag=lead
~ taps=[1.02 0.97]
! Transmission Lines
New Line.LINE1 Bus1=sourcebus Bus2=1 phases=3 X1=3 R1=6
New Line.LINE2 Bus1=2 Bus2=3 phases=3 X1=0.3 R1=0.6

! Loads
New Loadshape.ls1 pmult=(file=load_profile_mld.csv)

New Load.LOAD1 Phases=1 Bus1=1.1 kV=79.674 kW=43 kvar=76 vminpu=0.8 vmaxpu=1.2
New Load.LOAD2 Phases=1 Bus1=1.2 kV=79.674 kW=52 kvar=85 vminpu=0.8 vmaxpu=1.2
New Load.LOAD3 Phases=1 Bus1=1.3 kV=79.674 kW=61 kvar=94 vminpu=0.8 vmaxpu=1.2
New Load.LOAD4 Phases=1 Bus1=3.1 kV=2.3 kW=74 kvar=41 vminpu=0.8 vmaxpu=1.2 model=1 daily=ls1
New Load.LOAD5 Phases=1 Bus1=3.2 kV=2.3 kW=85 kvar=52 vminpu=0.8 vmaxpu=1.2 model=1 daily=ls1
New Load.LOAD6 Phases=1 Bus1=3.3 kV=2.3 kW=96 kvar=63 vminpu=0.8 vmaxpu=1.2 model=1 daily=ls1

! Set Voltage Bases
Set voltagebases=[138  4]
Calcvoltagebases

! Solve network
solve
